<?xml version="1.0" encoding="UTF-8"?>

<!-- generated on So  9 Sep 11:40:47 2018 by Netedit Version 0.32.0
<?xml version="1.0" encoding="UTF-8"?>

<configuration xmlns:xsi="http://www.w3.org/2001/XMLSchema-instance" xsi:noNamespaceSchemaLocation="http://sumo.dlr.de/xsd/netconvertConfiguration.xsd">

    <input>
        <sumo-net-file value="/Users/clemens/Desktop/PycharmProjects/tfEnv/represent_env/three_lanes%20/one_lane.net.xml"/>
    </input>

    <output>
        <output-file value="/Users/clemens/Desktop/PycharmProjects/tfEnv/represent_env/three_lanes%20/one_lane.net.xml"/>
    </output>

    <processing>
        <no-turnarounds value="true"/>
        <offset.disable-normalization value="true"/>
        <lefthand value="false"/>
        <junctions.corner-detail value="0"/>
        <rectangular-lane-cut value="false"/>
        <walkingareas value="false"/>
    </processing>

</configuration>
-->

<net version="0.27" xmlns:xsi="http://www.w3.org/2001/XMLSchema-instance" xsi:noNamespaceSchemaLocation="http://sumo.dlr.de/xsd/net_file.xsd">

    <location netOffset="0.00,0.00" convBoundary="-200.00,-100.00,200.00,300.00" origBoundary="-10000000000.00,-10000000000.00,10000000000.00,10000000000.00" projParameter="!"/>

    <edge id=":gneJ1_0" function="internal">
        <lane id=":gneJ1_0_0" index="0" speed="13.89" length="5.00" shape="-8.25,104.75 -8.44,103.39 -9.02,102.43 -9.99,101.84 -11.35,101.65"/>
    </edge>
    <edge id=":gneJ1_1" function="internal">
        <lane id=":gneJ1_1_0" index="0" speed="13.89" length="9.50" shape="-8.25,104.75 -8.25,95.25"/>
        <lane id=":gneJ1_1_1" index="1" speed="13.89" length="9.50" shape="-4.95,104.75 -4.95,95.25"/>
        <lane id=":gneJ1_1_2" index="2" speed="13.89" length="9.50" shape="-1.65,104.75 -1.65,95.25"/>
    </edge>
    <edge id=":gneJ1_4" function="internal">
        <lane id=":gneJ1_4_0" index="0" speed="13.89" length="5.00" shape="8.25,95.25 8.44,96.61 9.02,97.57 9.99,98.16 11.35,98.35"/>
    </edge>
    <edge id=":gneJ1_5" function="internal">
        <lane id=":gneJ1_5_0" index="0" speed="13.89" length="9.50" shape="8.25,95.25 8.25,104.75"/>
        <lane id=":gneJ1_5_1" index="1" speed="13.89" length="9.50" shape="4.95,95.25 4.95,104.75"/>
        <lane id=":gneJ1_5_2" index="2" speed="13.89" length="9.50" shape="1.65,95.25 1.65,104.75"/>
    </edge>
    <edge id=":gneJ1_8" function="internal">
        <lane id=":gneJ1_8_0" index="0" speed="13.89" length="22.70" shape="-11.35,98.35 11.35,98.35"/>
    </edge>
    <edge id=":gneJ1_9" function="internal">
        <lane id=":gneJ1_9_0" index="0" speed="13.89" length="22.07" shape="-11.35,98.35 -2.77,98.75 3.35,99.95 7.03,101.95 8.25,104.75"/>
    </edge>

    <edge id="-gneE0" from="gneJ1" to="gneJ0" priority="1">
        <lane id="-gneE0_0" index="0" speed="13.89" length="188.65" shape="-11.35,101.65 -200.00,101.65"/>
    </edge>
    <edge id="-gneE1" from="gneJ1" to="gneJ2" priority="1">
        <lane id="-gneE1_0" index="0" speed="13.89" length="188.65" shape="11.35,98.35 200.00,98.35"/>
    </edge>
    <edge id="-gneE2" from="gneJ1" to="gneJ3" priority="1">
        <lane id="-gneE2_0" index="0" speed="13.89" length="195.25" shape="8.25,104.75 8.25,300.00"/>
        <lane id="-gneE2_1" index="1" speed="13.89" length="195.25" shape="4.95,104.75 4.95,300.00"/>
        <lane id="-gneE2_2" index="2" speed="13.89" length="195.25" shape="1.65,104.75 1.65,300.00"/>
    </edge>
    <edge id="-gneE3" from="gneJ1" to="gneJ4" priority="1">
        <lane id="-gneE3_0" index="0" speed="13.89" length="195.25" shape="-8.25,95.25 -8.25,-100.00"/>
        <lane id="-gneE3_1" index="1" speed="13.89" length="195.25" shape="-4.95,95.25 -4.95,-100.00"/>
        <lane id="-gneE3_2" index="2" speed="13.89" length="195.25" shape="-1.65,95.25 -1.65,-100.00"/>
    </edge>
    <edge id="gneE0" from="gneJ0" to="gneJ1" priority="1">
        <lane id="gneE0_0" index="0" speed="13.89" length="188.65" shape="-200.00,98.35 -11.35,98.35"/>
    </edge>
    <edge id="gneE1" from="gneJ2" to="gneJ1" priority="1">
        <lane id="gneE1_0" index="0" speed="13.89" length="188.65" shape="200.00,101.65 11.35,101.65"/>
    </edge>
    <edge id="gneE2" from="gneJ3" to="gneJ1" priority="1">
        <lane id="gneE2_0" index="0" speed="13.89" length="195.25" shape="-8.25,300.00 -8.25,104.75"/>
        <lane id="gneE2_1" index="1" speed="13.89" length="195.25" shape="-4.95,300.00 -4.95,104.75"/>
        <lane id="gneE2_2" index="2" speed="13.89" length="195.25" shape="-1.65,300.00 -1.65,104.75"/>
    </edge>
    <edge id="gneE3" from="gneJ4" to="gneJ1" priority="1">
        <lane id="gneE3_0" index="0" speed="13.89" length="195.25" shape="8.25,-100.00 8.25,95.25"/>
        <lane id="gneE3_1" index="1" speed="13.89" length="195.25" shape="4.95,-100.00 4.95,95.25"/>
        <lane id="gneE3_2" index="2" speed="13.89" length="195.25" shape="1.65,-100.00 1.65,95.25"/>
    </edge>

    <junction id="gneJ0" type="dead_end" x="-200.00" y="100.00" incLanes="-gneE0_0" intLanes="" shape="-200.00,99.95 -200.00,103.25 -200.00,100.05"/>
    <junction id="gneJ1" type="priority" x="0.00" y="100.00" incLanes="gneE2_0 gneE2_1 gneE2_2 gneE1_0 gneE3_0 gneE3_1 gneE3_2 gneE0_0" intLanes=":gneJ1_0_0 :gneJ1_1_0 :gneJ1_1_1 :gneJ1_1_2 :gneJ1_4_0 :gneJ1_5_0 :gneJ1_5_1 :gneJ1_5_2 :gneJ1_8_0 :gneJ1_9_0" shape="-9.85,104.75 9.85,104.75 11.35,103.25 11.35,96.75 9.85,95.25 -9.85,95.25 -11.35,96.75 -11.35,103.25">
        <request index="0" response="0000000000" foes="0000000000" cont="0"/>
        <request index="1" response="0000000000" foes="1100000000" cont="0"/>
        <request index="2" response="0000000000" foes="1100000000" cont="0"/>
        <request index="3" response="0000000000" foes="1100000000" cont="0"/>
        <request index="4" response="0000000000" foes="0100000000" cont="0"/>
        <request index="5" response="0000000000" foes="1100000000" cont="0"/>
        <request index="6" response="0000000000" foes="1100000000" cont="0"/>
        <request index="7" response="0000000000" foes="1100000000" cont="0"/>
        <request index="8" response="0011111110" foes="0011111110" cont="0"/>
        <request index="9" response="0011101110" foes="0011101110" cont="0"/>
    </junction>
    <junction id="gneJ2" type="dead_end" x="200.00" y="100.00" incLanes="-gneE1_0" intLanes="" shape="200.00,100.05 200.00,96.75 200.00,99.95"/>
    <junction id="gneJ3" type="dead_end" x="0.00" y="300.00" incLanes="-gneE2_0 -gneE2_1 -gneE2_2" intLanes="" shape="-0.05,300.00 9.85,300.00 0.05,300.00"/>
    <junction id="gneJ4" type="dead_end" x="0.00" y="-100.00" incLanes="-gneE3_0 -gneE3_1 -gneE3_2" intLanes="" shape="0.05,-100.00 -9.85,-100.00 -0.05,-100.00"/>

    <connection from="gneE0" to="-gneE1" fromLane="0" toLane="0" via=":gneJ1_8_0" dir="s" state="m"/>
    <connection from="gneE0" to="-gneE2" fromLane="0" toLane="0" via=":gneJ1_9_0" dir="l" state="m"/>
    <connection from="gneE2" to="-gneE0" fromLane="0" toLane="0" via=":gneJ1_0_0" dir="r" state="M"/>
    <connection from="gneE2" to="-gneE3" fromLane="0" toLane="0" via=":gneJ1_1_0" dir="s" state="M"/>
    <connection from="gneE2" to="-gneE3" fromLane="1" toLane="1" via=":gneJ1_1_1" dir="s" state="M"/>
    <connection from="gneE2" to="-gneE3" fromLane="2" toLane="2" via=":gneJ1_1_2" dir="s" state="M"/>
    <connection from="gneE3" to="-gneE1" fromLane="0" toLane="0" via=":gneJ1_4_0" dir="r" state="M"/>
    <connection from="gneE3" to="-gneE2" fromLane="0" toLane="0" via=":gneJ1_5_0" dir="s" state="M"/>
    <connection from="gneE3" to="-gneE2" fromLane="1" toLane="1" via=":gneJ1_5_1" dir="s" state="M"/>
    <connection from="gneE3" to="-gneE2" fromLane="2" toLane="2" via=":gneJ1_5_2" dir="s" state="M"/>

    <connection from=":gneJ1_0" to="-gneE0" fromLane="0" toLane="0" dir="r" state="M"/>
    <connection from=":gneJ1_1" to="-gneE3" fromLane="0" toLane="0" dir="s" state="M"/>
    <connection from=":gneJ1_1" to="-gneE3" fromLane="1" toLane="1" dir="s" state="M"/>
    <connection from=":gneJ1_1" to="-gneE3" fromLane="2" toLane="2" dir="s" state="M"/>
    <connection from=":gneJ1_4" to="-gneE1" fromLane="0" toLane="0" dir="r" state="M"/>
    <connection from=":gneJ1_5" to="-gneE2" fromLane="0" toLane="0" dir="s" state="M"/>
    <connection from=":gneJ1_5" to="-gneE2" fromLane="1" toLane="1" dir="s" state="M"/>
    <connection from=":gneJ1_5" to="-gneE2" fromLane="2" toLane="2" dir="s" state="M"/>
    <connection from=":gneJ1_8" to="-gneE1" fromLane="0" toLane="0" dir="s" state="M"/>
    <connection from=":gneJ1_9" to="-gneE2" fromLane="0" toLane="0" dir="l" state="M"/>

</net>
