<configuration>
    <input>
        <net-file value="three_lanes.net.xml"/>
        <route-files value="three_lanes.rou.xml"/>
        <gui-settings-file value="three_lanes.settings.xml"/>
    </input>
    <time>
        <begin value="0"/>
        <end value="40"/>
        <step-length value="0.5" />
    </time>
</configuration>
