<routes>
            <vType accel="1.0" decel="5.0" id="Car" length="4.0" maxSpeed="20.0" sigma="0.0" departSpeed="13.89"/>
    
            <route id="n2s" edges="gneE19 -gneE18" />
            <route id="s2n" edges="gneE18 -gneE19" />
            <route id="w2e" edges="gneE16 -gneE32 -gneE31" />
            <route id="n2s2" edges="-gneE30 -gneE29" />
            <route id="s2n2" edges="gneE29 gneE30" />
    
            
    <vehicle id="right_0" type="Car" route="s2n" depart="0" />
    <vehicle id="right_1" type="Car" route="n2s" depart="3" />
    <vehicle id="right_2" type="Car" route="s2n" depart="3" />
    <vehicle id="left_3" type="Car" route="s2n2" depart="4" />
    <vehicle id="right_4" type="Car" route="n2s" depart="5" />
    <vehicle id="right_5" type="Car" route="s2n" depart="5" />
    <vehicle id="left_6" type="Car" route="n2s2" depart="6" />
    <vehicle id="right_7" type="Car" route="n2s" depart="7" />
    <vehicle id="left_8" type="Car" route="s2n2" depart="8" />
    <vehicle id="right_9" type="Car" route="s2n" depart="9" />
    <vehicle id="right_10" type="Car" route="s2n" depart="10" />
    <vehicle id="right_11" type="Car" route="s2n" depart="11" />
    <vehicle id="right_12" type="Car" route="s2n" depart="12" />
    <vehicle id="left_13" type="Car" route="n2s2" depart="12" />
    <vehicle id="right_14" type="Car" route="n2s" depart="13" />
    <vehicle id="ego" type="Car" route="w2e" depart="15" departSpeed="13.89"/>
    <vehicle id="right_16" type="Car" route="s2n" depart="17" />
    <vehicle id="right_17" type="Car" route="n2s" depart="19" />
    <vehicle id="right_18" type="Car" route="s2n" depart="21" />
    <vehicle id="right_19" type="Car" route="n2s" depart="23" />
    <vehicle id="left_20" type="Car" route="s2n2" depart="23" />
    <vehicle id="left_21" type="Car" route="n2s2" depart="25" />
    <vehicle id="right_22" type="Car" route="n2s" depart="29" />
    <vehicle id="right_23" type="Car" route="s2n" depart="29" />
    <vehicle id="right_24" type="Car" route="n2s" depart="30" />
    <vehicle id="left_25" type="Car" route="n2s2" depart="31" />
    <vehicle id="left_26" type="Car" route="n2s2" depart="32" />
    <vehicle id="right_27" type="Car" route="n2s" depart="33" />
    <vehicle id="left_28" type="Car" route="n2s2" depart="33" />
    <vehicle id="right_29" type="Car" route="n2s" depart="35" />
    <vehicle id="left_30" type="Car" route="s2n2" depart="35" />
    <vehicle id="left_31" type="Car" route="s2n2" depart="37" />
    <vehicle id="right_32" type="Car" route="n2s" depart="38" />
    <vehicle id="right_33" type="Car" route="n2s" depart="39" />
    <vehicle id="right_34" type="Car" route="s2n" depart="40" />
    <vehicle id="left_35" type="Car" route="n2s2" depart="42" />
    <vehicle id="left_36" type="Car" route="n2s2" depart="44" />
    <vehicle id="left_37" type="Car" route="n2s2" depart="47" />
    <vehicle id="left_38" type="Car" route="s2n2" depart="47" />
    <vehicle id="right_39" type="Car" route="n2s" depart="48" />
    <vehicle id="left_40" type="Car" route="n2s2" depart="49" />
    <vehicle id="left_41" type="Car" route="n2s2" depart="50" />
    <vehicle id="right_42" type="Car" route="s2n" depart="51" />
    <vehicle id="left_43" type="Car" route="n2s2" depart="52" />
    <vehicle id="left_44" type="Car" route="s2n2" depart="52" />
    <vehicle id="right_45" type="Car" route="s2n" depart="53" />
    <vehicle id="right_46" type="Car" route="n2s" depart="56" />
    <vehicle id="left_47" type="Car" route="s2n2" depart="56" />
    <vehicle id="right_48" type="Car" route="n2s" depart="60" />
    <vehicle id="right_49" type="Car" route="s2n" depart="61" />
    <vehicle id="right_50" type="Car" route="s2n" depart="62" />
    <vehicle id="left_51" type="Car" route="n2s2" depart="64" />
    <vehicle id="left_52" type="Car" route="n2s2" depart="65" />
    <vehicle id="left_53" type="Car" route="s2n2" depart="67" />
    <vehicle id="right_54" type="Car" route="n2s" depart="68" />
    <vehicle id="left_55" type="Car" route="s2n2" depart="72" />
    <vehicle id="left_56" type="Car" route="n2s2" depart="74" />
    <vehicle id="right_57" type="Car" route="s2n" depart="76" />
    <vehicle id="left_58" type="Car" route="n2s2" depart="77" />
    <vehicle id="right_59" type="Car" route="n2s" depart="78" />
    <vehicle id="right_60" type="Car" route="s2n" depart="78" />
    <vehicle id="left_61" type="Car" route="n2s2" depart="80" />
    <vehicle id="left_62" type="Car" route="s2n2" depart="80" />
    <vehicle id="right_63" type="Car" route="s2n" depart="81" />
    <vehicle id="right_64" type="Car" route="s2n" depart="82" />
    <vehicle id="right_65" type="Car" route="s2n" depart="83" />
    <vehicle id="right_66" type="Car" route="n2s" depart="84" />
    <vehicle id="left_67" type="Car" route="n2s2" depart="85" />
    <vehicle id="right_68" type="Car" route="s2n" depart="86" />
    <vehicle id="right_69" type="Car" route="s2n" depart="88" />
    <vehicle id="left_70" type="Car" route="n2s2" depart="89" />
    <vehicle id="right_71" type="Car" route="s2n" depart="95" />
    <vehicle id="right_72" type="Car" route="s2n" depart="96" />
    <vehicle id="left_73" type="Car" route="s2n2" depart="97" />
    <vehicle id="left_74" type="Car" route="n2s2" depart="98" />
    <vehicle id="left_75" type="Car" route="n2s2" depart="99" />
    <vehicle id="right_76" type="Car" route="s2n" depart="100" />
    <vehicle id="right_77" type="Car" route="n2s" depart="104" />
    <vehicle id="right_78" type="Car" route="s2n" depart="104" />
    <vehicle id="right_79" type="Car" route="s2n" depart="105" />
    <vehicle id="left_80" type="Car" route="s2n2" depart="106" />
    <vehicle id="right_81" type="Car" route="n2s" depart="108" />
    <vehicle id="right_82" type="Car" route="s2n" depart="109" />
    <vehicle id="left_83" type="Car" route="n2s2" depart="109" />
    <vehicle id="left_84" type="Car" route="s2n2" depart="113" />
    <vehicle id="left_85" type="Car" route="n2s2" depart="115" />
    <vehicle id="left_86" type="Car" route="s2n2" depart="115" />
    <vehicle id="right_87" type="Car" route="s2n" depart="117" />
    <vehicle id="left_88" type="Car" route="n2s2" depart="118" />
    <vehicle id="right_89" type="Car" route="s2n" depart="121" />
    <vehicle id="right_90" type="Car" route="n2s" depart="122" />
    <vehicle id="left_91" type="Car" route="n2s2" depart="123" />
    <vehicle id="left_92" type="Car" route="s2n2" depart="123" />
    <vehicle id="right_93" type="Car" route="n2s" depart="125" />
    <vehicle id="right_94" type="Car" route="s2n" depart="125" />
    <vehicle id="left_95" type="Car" route="n2s2" depart="126" />
    <vehicle id="right_96" type="Car" route="s2n" depart="128" />
    <vehicle id="right_97" type="Car" route="s2n" depart="131" />
    <vehicle id="left_98" type="Car" route="n2s2" depart="133" />
    <vehicle id="right_99" type="Car" route="s2n" depart="136" />
    <vehicle id="left_100" type="Car" route="s2n2" depart="137" />
    <vehicle id="right_101" type="Car" route="s2n" depart="138" />
    <vehicle id="left_102" type="Car" route="s2n2" depart="138" />
    <vehicle id="right_103" type="Car" route="n2s" depart="139" />
    <vehicle id="left_104" type="Car" route="n2s2" depart="140" />
    <vehicle id="left_105" type="Car" route="s2n2" depart="142" />
    <vehicle id="right_106" type="Car" route="n2s" depart="143" />
    <vehicle id="left_107" type="Car" route="n2s2" depart="143" />
    <vehicle id="left_108" type="Car" route="n2s2" depart="146" />
    <vehicle id="right_109" type="Car" route="s2n" depart="148" />
    <vehicle id="right_110" type="Car" route="n2s" depart="151" />
    <vehicle id="right_111" type="Car" route="s2n" depart="152" />
    <vehicle id="right_112" type="Car" route="n2s" depart="153" />
    <vehicle id="left_113" type="Car" route="s2n2" depart="154" />
    <vehicle id="left_114" type="Car" route="n2s2" depart="160" />
    <vehicle id="right_115" type="Car" route="n2s" depart="161" />
    <vehicle id="left_116" type="Car" route="n2s2" depart="164" />
    <vehicle id="left_117" type="Car" route="s2n2" depart="164" />
    <vehicle id="left_118" type="Car" route="s2n2" depart="165" />
    <vehicle id="left_119" type="Car" route="n2s2" depart="167" />
    <vehicle id="left_120" type="Car" route="s2n2" depart="167" />
    <vehicle id="right_121" type="Car" route="s2n" depart="170" />
    <vehicle id="right_122" type="Car" route="s2n" depart="171" />
    <vehicle id="right_123" type="Car" route="s2n" depart="172" />
    <vehicle id="right_124" type="Car" route="s2n" depart="175" />
    <vehicle id="right_125" type="Car" route="s2n" depart="179" />
    <vehicle id="left_126" type="Car" route="n2s2" depart="179" />
    <vehicle id="left_127" type="Car" route="n2s2" depart="180" />
    <vehicle id="right_128" type="Car" route="s2n" depart="181" />
    <vehicle id="left_129" type="Car" route="n2s2" depart="184" />
    <vehicle id="left_130" type="Car" route="s2n2" depart="184" />
    <vehicle id="left_131" type="Car" route="n2s2" depart="187" />
    <vehicle id="left_132" type="Car" route="n2s2" depart="190" />
    <vehicle id="right_133" type="Car" route="n2s" depart="191" />
    <vehicle id="left_134" type="Car" route="s2n2" depart="191" />
    <vehicle id="right_135" type="Car" route="s2n" depart="192" />
    <vehicle id="right_136" type="Car" route="s2n" depart="195" />
    <vehicle id="right_137" type="Car" route="s2n" depart="199" />
</routes>
