<configuration>
    <input>
        <net-file value="two_intersections.net.xml"/>
        <route-files value="two_intersections.rou.xml"/>
        <gui-settings-file value="two_intersections.settings.xml"/>
    </input>
    <time>
        <begin value="0"/>
        <end value="300"/>
        <step-length value="0.5" />
    </time>
</configuration>
