<routes>
            <vType accel="1.0" decel="5.0" id="Car" length="4.0" maxSpeed="20.0" sigma="0.0" departSpeed="13.89"/>
    
            <route id="n2s" edges="gneE2 -gneE3" />
            <route id="s2n" edges="gneE3 -gneE2" />
            <route id="w2e" edges="gneE0 -gneE1" />
    
            
    <vehicle id="left_0" type="Car" route="s2n" depart="3" />
    <vehicle id="right_1" type="Car" route="n2s" depart="15" />
    <vehicle id="ego" type="Car" route="w2e" depart="15" departSpeed="13.89"/>
    <vehicle id="right_3" type="Car" route="n2s" depart="22" />
    <vehicle id="left_4" type="Car" route="s2n" depart="23" />
    <vehicle id="left_5" type="Car" route="s2n" depart="27" />
    <vehicle id="right_6" type="Car" route="n2s" depart="31" />
    <vehicle id="left_7" type="Car" route="s2n" depart="31" />
    <vehicle id="left_8" type="Car" route="s2n" depart="36" />
    <vehicle id="right_9" type="Car" route="n2s" depart="37" />
    <vehicle id="right_10" type="Car" route="n2s" depart="38" />
    <vehicle id="left_11" type="Car" route="s2n" depart="41" />
    <vehicle id="left_12" type="Car" route="s2n" depart="48" />
    <vehicle id="right_13" type="Car" route="n2s" depart="64" />
    <vehicle id="right_14" type="Car" route="n2s" depart="81" />
    <vehicle id="left_15" type="Car" route="s2n" depart="81" />
    <vehicle id="left_16" type="Car" route="s2n" depart="90" />
    <vehicle id="left_17" type="Car" route="s2n" depart="94" />
    <vehicle id="left_18" type="Car" route="s2n" depart="100" />
    <vehicle id="left_19" type="Car" route="s2n" depart="106" />
    <vehicle id="left_20" type="Car" route="s2n" depart="119" />
    <vehicle id="right_21" type="Car" route="n2s" depart="131" />
    <vehicle id="right_22" type="Car" route="n2s" depart="142" />
    <vehicle id="left_23" type="Car" route="s2n" depart="146" />
    <vehicle id="left_24" type="Car" route="s2n" depart="149" />
    <vehicle id="right_25" type="Car" route="n2s" depart="155" />
    <vehicle id="right_26" type="Car" route="n2s" depart="156" />
    <vehicle id="left_27" type="Car" route="s2n" depart="157" />
    <vehicle id="right_28" type="Car" route="n2s" depart="158" />
    <vehicle id="right_29" type="Car" route="n2s" depart="159" />
    <vehicle id="left_30" type="Car" route="s2n" depart="171" />
    <vehicle id="right_31" type="Car" route="n2s" depart="175" />
    <vehicle id="right_32" type="Car" route="n2s" depart="185" />
    <vehicle id="left_33" type="Car" route="s2n" depart="191" />
    <vehicle id="left_34" type="Car" route="s2n" depart="197" />
</routes>
