<?xml version="1.0" encoding="UTF-8"?>

<!-- generated on So  2 Sep 20:53:20 2018 by Netedit Version 0.32.0
<?xml version="1.0" encoding="UTF-8"?>

<configuration xmlns:xsi="http://www.w3.org/2001/XMLSchema-instance" xsi:noNamespaceSchemaLocation="http://sumo.dlr.de/xsd/netconvertConfiguration.xsd">

    <input>
        <sumo-net-file value="/Users/clemens/Desktop/PycharmProjects/tfEnv/represent_env/one_lane/one_lane.net.xml"/>
    </input>

    <output>
        <output-file value="/Users/clemens/Desktop/PycharmProjects/tfEnv/represent_env/one_lane/one_lane.net.xml"/>
    </output>

    <processing>
        <no-turnarounds value="true"/>
        <offset.disable-normalization value="true"/>
        <lefthand value="false"/>
        <junctions.corner-detail value="0"/>
        <rectangular-lane-cut value="false"/>
        <walkingareas value="false"/>
    </processing>

</configuration>
-->

<net version="0.27" xmlns:xsi="http://www.w3.org/2001/XMLSchema-instance" xsi:noNamespaceSchemaLocation="http://sumo.dlr.de/xsd/net_file.xsd">

    <location netOffset="0.00,0.00" convBoundary="-200.00,-100.00,200.00,300.00" origBoundary="-10000000000.00,-10000000000.00,10000000000.00,10000000000.00" projParameter="!"/>

    <edge id=":gneJ1_0" function="internal">
        <lane id=":gneJ1_0_0" index="0" speed="13.89" length="5.00" shape="-1.65,104.75 -1.84,103.39 -2.43,102.43 -3.39,101.84 -4.75,101.65"/>
    </edge>
    <edge id=":gneJ1_1" function="internal">
        <lane id=":gneJ1_1_0" index="0" speed="13.89" length="9.50" shape="-1.65,104.75 -1.65,95.25"/>
    </edge>
    <edge id=":gneJ1_2" function="internal">
        <lane id=":gneJ1_2_0" index="0" speed="13.89" length="5.00" shape="1.65,95.25 1.84,96.61 2.43,97.57 3.39,98.16 4.75,98.35"/>
    </edge>
    <edge id=":gneJ1_3" function="internal">
        <lane id=":gneJ1_3_0" index="0" speed="13.89" length="9.50" shape="1.65,95.25 1.65,104.75"/>
    </edge>
    <edge id=":gneJ1_4" function="internal">
        <lane id=":gneJ1_4_0" index="0" speed="13.89" length="9.50" shape="-4.75,98.35 4.75,98.35"/>
    </edge>

    <edge id="-gneE0" from="gneJ1" to="gneJ0" priority="1">
        <lane id="-gneE0_0" index="0" speed="13.89" length="195.25" shape="-4.75,101.65 -200.00,101.65"/>
    </edge>
    <edge id="-gneE1" from="gneJ1" to="gneJ2" priority="1">
        <lane id="-gneE1_0" index="0" speed="13.89" length="195.25" shape="4.75,98.35 200.00,98.35"/>
    </edge>
    <edge id="-gneE2" from="gneJ1" to="gneJ3" priority="1">
        <lane id="-gneE2_0" index="0" speed="13.89" length="195.25" shape="1.65,104.75 1.65,300.00"/>
    </edge>
    <edge id="-gneE3" from="gneJ1" to="gneJ4" priority="1">
        <lane id="-gneE3_0" index="0" speed="13.89" length="195.25" shape="-1.65,95.25 -1.65,-100.00"/>
    </edge>
    <edge id="gneE0" from="gneJ0" to="gneJ1" priority="1">
        <lane id="gneE0_0" index="0" speed="13.89" length="195.25" shape="-200.00,98.35 -4.75,98.35"/>
    </edge>
    <edge id="gneE1" from="gneJ2" to="gneJ1" priority="1">
        <lane id="gneE1_0" index="0" speed="13.89" length="195.25" shape="200.00,101.65 4.75,101.65"/>
    </edge>
    <edge id="gneE2" from="gneJ3" to="gneJ1" priority="1">
        <lane id="gneE2_0" index="0" speed="13.89" length="195.25" shape="-1.65,300.00 -1.65,104.75"/>
    </edge>
    <edge id="gneE3" from="gneJ4" to="gneJ1" priority="1">
        <lane id="gneE3_0" index="0" speed="13.89" length="195.25" shape="1.65,-100.00 1.65,95.25"/>
    </edge>

    <junction id="gneJ0" type="dead_end" x="-200.00" y="100.00" incLanes="-gneE0_0" intLanes="" shape="-200.00,99.95 -200.00,103.25 -200.00,100.05"/>
    <junction id="gneJ1" type="priority" x="0.00" y="100.00" incLanes="gneE2_0 gneE1_0 gneE3_0 gneE0_0" intLanes=":gneJ1_0_0 :gneJ1_1_0 :gneJ1_2_0 :gneJ1_3_0 :gneJ1_4_0" shape="-3.25,104.75 3.25,104.75 4.75,103.25 4.75,96.75 3.25,95.25 -3.25,95.25 -4.75,96.75 -4.75,103.25">
        <request index="0" response="00000" foes="00000" cont="0"/>
        <request index="1" response="00000" foes="10000" cont="0"/>
        <request index="2" response="00000" foes="10000" cont="0"/>
        <request index="3" response="00000" foes="10000" cont="0"/>
        <request index="4" response="01110" foes="01110" cont="0"/>
    </junction>
    <junction id="gneJ2" type="dead_end" x="200.00" y="100.00" incLanes="-gneE1_0" intLanes="" shape="200.00,100.05 200.00,96.75 200.00,99.95"/>
    <junction id="gneJ3" type="dead_end" x="0.00" y="300.00" incLanes="-gneE2_0" intLanes="" shape="-0.05,300.00 3.25,300.00 0.05,300.00"/>
    <junction id="gneJ4" type="dead_end" x="0.00" y="-100.00" incLanes="-gneE3_0" intLanes="" shape="0.05,-100.00 -3.25,-100.00 -0.05,-100.00"/>

    <connection from="gneE0" to="-gneE1" fromLane="0" toLane="0" via=":gneJ1_4_0" dir="s" state="m"/>
    <connection from="gneE2" to="-gneE0" fromLane="0" toLane="0" via=":gneJ1_0_0" dir="r" state="M"/>
    <connection from="gneE2" to="-gneE3" fromLane="0" toLane="0" via=":gneJ1_1_0" dir="s" state="M"/>
    <connection from="gneE3" to="-gneE1" fromLane="0" toLane="0" via=":gneJ1_2_0" dir="r" state="M"/>
    <connection from="gneE3" to="-gneE2" fromLane="0" toLane="0" via=":gneJ1_3_0" dir="s" state="M"/>

    <connection from=":gneJ1_0" to="-gneE0" fromLane="0" toLane="0" dir="r" state="M"/>
    <connection from=":gneJ1_1" to="-gneE3" fromLane="0" toLane="0" dir="s" state="M"/>
    <connection from=":gneJ1_2" to="-gneE1" fromLane="0" toLane="0" dir="r" state="M"/>
    <connection from=":gneJ1_3" to="-gneE2" fromLane="0" toLane="0" dir="s" state="M"/>
    <connection from=":gneJ1_4" to="-gneE1" fromLane="0" toLane="0" dir="s" state="M"/>

</net>
