<routes>
            <vType accel="1.0" decel="5.0" id="Car" length="4.0" maxSpeed="20.0" sigma="0.0" departSpeed="13.89"/>
    
            <route id="n2s" edges="gneE2 -gneE3" />
            <route id="s2n" edges="gneE3 -gneE2" />
            <route id="w2e" edges="gneE0 -gneE1" />
    
            
    <vehicle id="left_0" type="Car" route="s2n" depart="2" />
    <vehicle id="right_1" type="Car" route="n2s" depart="5" />
    <vehicle id="right_2" type="Car" route="n2s" depart="10" />
    <vehicle id="ego" type="Car" route="w2e" depart="15" departSpeed="13.89"/>
    <vehicle id="left_4" type="Car" route="s2n" depart="15" />
    <vehicle id="left_5" type="Car" route="s2n" depart="20" />
    <vehicle id="right_6" type="Car" route="n2s" depart="23" />
    <vehicle id="left_7" type="Car" route="s2n" depart="24" />
    <vehicle id="left_8" type="Car" route="s2n" depart="26" />
    <vehicle id="left_9" type="Car" route="s2n" depart="27" />
    <vehicle id="left_10" type="Car" route="s2n" depart="30" />
    <vehicle id="right_11" type="Car" route="n2s" depart="35" />
    <vehicle id="left_12" type="Car" route="s2n" depart="41" />
    <vehicle id="right_13" type="Car" route="n2s" depart="53" />
    <vehicle id="right_14" type="Car" route="n2s" depart="60" />
    <vehicle id="left_15" type="Car" route="s2n" depart="75" />
    <vehicle id="left_16" type="Car" route="s2n" depart="85" />
    <vehicle id="left_17" type="Car" route="s2n" depart="89" />
    <vehicle id="left_18" type="Car" route="s2n" depart="91" />
    <vehicle id="right_19" type="Car" route="n2s" depart="92" />
    <vehicle id="right_20" type="Car" route="n2s" depart="99" />
    <vehicle id="right_21" type="Car" route="n2s" depart="105" />
    <vehicle id="left_22" type="Car" route="s2n" depart="106" />
    <vehicle id="right_23" type="Car" route="n2s" depart="107" />
    <vehicle id="left_24" type="Car" route="s2n" depart="110" />
    <vehicle id="right_25" type="Car" route="n2s" depart="123" />
    <vehicle id="right_26" type="Car" route="n2s" depart="124" />
    <vehicle id="right_27" type="Car" route="n2s" depart="128" />
    <vehicle id="left_28" type="Car" route="s2n" depart="131" />
    <vehicle id="left_29" type="Car" route="s2n" depart="133" />
    <vehicle id="left_30" type="Car" route="s2n" depart="136" />
    <vehicle id="left_31" type="Car" route="s2n" depart="139" />
    <vehicle id="right_32" type="Car" route="n2s" depart="140" />
    <vehicle id="right_33" type="Car" route="n2s" depart="141" />
    <vehicle id="right_34" type="Car" route="n2s" depart="146" />
    <vehicle id="right_35" type="Car" route="n2s" depart="148" />
    <vehicle id="left_36" type="Car" route="s2n" depart="150" />
    <vehicle id="right_37" type="Car" route="n2s" depart="157" />
    <vehicle id="right_38" type="Car" route="n2s" depart="170" />
    <vehicle id="left_39" type="Car" route="s2n" depart="172" />
    <vehicle id="right_40" type="Car" route="n2s" depart="176" />
    <vehicle id="left_41" type="Car" route="s2n" depart="177" />
    <vehicle id="right_42" type="Car" route="n2s" depart="188" />
    <vehicle id="right_43" type="Car" route="n2s" depart="192" />
    <vehicle id="left_44" type="Car" route="s2n" depart="193" />
</routes>
